PCG
  CCTOOLS-1004241119

 35 38  0  0  1  0  0  0  0  0999 V2000
    0.0690    0.4390    4.3670 P   0  0  0  0  0
    0.9480    0.7400    5.6820 O   0  0  0  0  0
   -1.0830    1.3660    4.3300 O   0  0  0  0  0
   -0.4700   -1.0720    4.4270 O   0  0  0  0  0
   -1.1610   -1.3590    3.2040 C   0  0  0  0  0
   -0.1810   -1.1650    2.0620 C   0  0  0  0  0
   -0.6750   -1.4740    0.7590 O   0  0  0  0  0
    0.1490    0.3470    1.9580 C   0  0  0  0  0
    0.9810    0.6740    3.0530 O   0  0  0  0  0
    0.8200    0.4100    0.5750 C   0  0  0  0  0
    2.2390    0.2930    0.6980 O   0  0  0  0  0
    0.2180   -0.8090   -0.1640 C   0  0  0  0  0
   -0.5270   -0.3600   -1.3430 N   0  0  0  0  0
   -1.8490   -0.0240   -1.3820 C   0  0  0  0  0
   -2.1790    0.3280   -2.5900 N   0  0  0  0  0
   -1.0920    0.2400   -3.3950 C   0  0  0  0  0
   -0.8610    0.4920   -4.7680 C   0  0  0  0  0
   -1.7620    0.8770   -5.4930 O   0  0  0  0  0
    0.3850    0.2990   -5.2540 N   0  0  0  0  0
    1.3830   -0.1370   -4.4350 C   0  0  0  0  0
    2.6370   -0.3300   -4.9580 N   0  0  0  0  0
    1.1810   -0.3740   -3.1590 N   0  0  0  0  0
   -0.0240   -0.2000   -2.6050 C   0  0  0  0  0
    0.3660    0.6120    6.4430 H   0  0  0  0  0
   -2.0040   -0.6780    3.0870 H   0  0  0  0  0
   -1.5170   -2.3900    3.2140 H   0  0  0  0  0
    0.7300   -1.7310    2.2570 H   0  0  0  0  0
   -0.7670    0.9360    1.9810 H   0  0  0  0  0
    0.5550    1.3340    0.0610 H   0  0  0  0  0
    2.6010    0.3400   -0.1960 H   0  0  0  0  0
    1.0130   -1.4900   -0.4660 H   0  0  0  0  0
   -2.5210   -0.0480   -0.5370 H   0  0  0  0  0
    0.5680    0.4640   -6.1920 H   0  0  0  0  0
    3.3590   -0.6360   -4.3870 H   0  0  0  0  0
    2.8010   -0.1630   -5.9000 H   0  0  0  0  0
  1  2  1  0  0  0
  1  3  2  0  0  0
  1  4  1  0  0  0
  1  9  1  0  0  0
  2 24  1  0  0  0
  4  5  1  0  0  0
  5  6  1  0  0  0
  5 25  1  0  0  0
  5 26  1  0  0  0
  6  7  1  0  0  0
  6  8  1  0  0  0
  6 27  1  0  0  0
  7 12  1  0  0  0
  8  9  1  0  0  0
  8 10  1  0  0  0
  8 28  1  0  0  0
 10 11  1  0  0  0
 10 12  1  0  0  0
 10 29  1  0  0  0
 11 30  1  0  0  0
 12 13  1  0  0  0
 12 31  1  0  0  0
 13 14  1  0  0  0
 13 23  1  0  0  0
 14 15  2  0  0  0
 14 32  1  0  0  0
 15 16  1  0  0  0
 16 17  1  0  0  0
 16 23  2  0  0  0
 17 18  2  0  0  0
 17 19  1  0  0  0
 19 20  1  0  0  0
 19 33  1  0  0  0
 20 21  1  0  0  0
 20 22  2  0  0  0
 21 34  1  0  0  0
 21 35  1  0  0  0
 22 23  1  0  0  0
M  END
$$$$
